anonymize/ieee123/anonymized_files/Line.dss
new Line.bd49fa848d Bus1=149 Bus2=1 C0=1.6 C1=3.4 CMatrix=[2.8517100719999995, -0.920293787, -0.350755566, -0.920293787, 3.004631862, -0.585011253, -0.350755566, -0.585011253, 2.71134756] EmergAmps=600.0 Geometry= LineCode=1 NormAmps=400.0 NumCust=0 Parent=0 Phases=3 R0=0.1784 R1=0.058 Rg=0.01805 Rho=100.0 RMatrix=[0.086666667, 0.029545455, 0.02907197, 0.029545455, 0.088371212, 0.029924242, 0.02907197, 0.029924242, 0.087405303] Spacing= TotalCust=0 Units=0 X0=0.4047 X1=0.1206 Xg=0.155081 XMatrix=[0.204166667, 0.095018939, 0.072897727, 0.095018939, 0.198522727, 0.080227273, 0.072897727, 0.080227273, 0.201723485] Yprim=[6.422970611176341, -13.318244469441764, -3.1198970975103664, 4.571812122685889, -1.1258181941131997, 2.9696646760397902, -6.422970611176341, 13.318244684455637, 3.1198970975103664, -4.571812192074407, 1.1258181941131997, -2.9696647024861367, -3.1198970975103664, 4.571812122685889, 7.182343584028698, -13.801161344424074, -1.911067478068104, 3.6244765047559415, 3.1198970975103664, -4.571812192074407, -7.182343584028698, 13.80116157096798, 1.911067478068104, -3.624476548864751, -1.1258181941131997, 2.9696646760397902, -1.911067478068104, 3.6244765047559415, 5.770479295366923, -12.853288462088235, 1.1258181941131997, -2.9696647024861367, 1.911067478068104, -3.624476548864751, -5.770479295366923, 12.853288666519026, -6.422970611176341, 13.318244684455637, 3.1198970975103664, -4.571812192074407, 1.1258181941131997, -2.9696647024861367, 6.422970611176341, -13.318244469441764, -3.1198970975103664, 4.571812122685889, -1.1258181941131997, 2.9696646760397902, 3.1198970975103664, -4.571812192074407, -7.182343584028698, 13.80116157096798, 1.911067478068104, -3.624476548864751, -3.1198970975103664, 4.571812122685889, 7.182343584028698, -13.801161344424074, -1.911067478068104, 3.6244765047559415, 1.1258181941131997, -2.9696647024861367, 1.911067478068104, -3.624476548864751, -5.770479295366923, 12.853288666519026, -1.1258181941131997, 2.9696646760397902, -1.911067478068104, 3.6244765047559415, 5.770479295366923, -12.853288462088235] Idx=1 IsSwitch=False SeasonRating=400.0 bus1=df06ae6474 bus2=63b3ffbd08 Length=0.4181644578021233 ;
new Line.ce7ea31f9e Bus1=1.2 Bus2=2.2 C0=3.4 C1=3.4 CMatrix=[2.270366128] EmergAmps=600.0 Geometry= LineCode=10 NormAmps=400.0 NumCust=0 Parent=0 Phases=1 R0=0.058 R1=0.058 Rg=0.01805 Rho=100.0 RMatrix=[0.251742424] Spacing= TotalCust=0 Units=0 X0=0.1206 X1=0.1206 Xg=0.155081 XMatrix=[0.255208333] Yprim=[11.194288766701773, -11.34840807132733, -11.194288766701773, 11.348408146219269, -11.194288766701773, 11.348408146219269, 11.194288766701773, -11.34840807132733] Idx=2 IsSwitch=False SeasonRating=400.0 bus1=49d92d2896 bus2=d9a1fcc6f2 Length=0.17383574090974743 ;
new Line.6d24ab62e0 Bus1=1.3 Bus2=3.3 C0=3.4 C1=3.4 CMatrix=[2.270366128] EmergAmps=600.0 Geometry= LineCode=11 NormAmps=400.0 NumCust=0 Parent=0 Phases=1 R0=0.058 R1=0.058 Rg=0.01805 Rho=100.0 RMatrix=[0.251742424] Spacing= TotalCust=0 Units=0 X0=0.1206 X1=0.1206 Xg=0.155081 XMatrix=[0.255208333] Yprim=[7.836002136691239, -7.943885595365004, -7.836002136691239, 7.943885702353487, -7.836002136691239, 7.943885702353487, 7.836002136691239, -7.943885595365004] Idx=3 IsSwitch=False SeasonRating=400.0 bus1=df06ae6474 bus2=5f8a30b486 Length=0.23780429290879568 ;
new Line.5c9aa3270f Bus1=1.1.2.3 Bus2=7.1.2.3 C0=1.6 C1=3.4 CMatrix=[2.8517100719999995, -0.920293787, -0.350755566, -0.920293787, 3.004631862, -0.585011253, -0.350755566, -0.585011253, 2.71134756] EmergAmps=600.0 Geometry= LineCode=1 NormAmps=400.0 NumCust=0 Parent=0 Phases=3 R0=0.1784 R1=0.058 Rg=0.01805 Rho=100.0 RMatrix=[0.086666667, 0.029545455, 0.02907197, 0.029545455, 0.088371212, 0.029924242, 0.02907197, 0.029924242, 0.087405303] Spacing= TotalCust=0 Units=0 X0=0.4047 X1=0.1206 Xg=0.155081 XMatrix=[0.204166667, 0.095018939, 0.072897727, 0.095018939, 0.198522727, 0.080227273, 0.072897727, 0.080227273, 0.201723485] Yprim=[8.563960814901792, -17.75765941801378, -4.159862796680489, 6.095749537391155, -1.5010909254842677, 3.9595529168134234, -8.563960814901792, 17.757659579274186, 4.159862796680489, -6.095749589432542, 1.5010909254842677, -3.9595529366481834, -4.159862796680489, 6.095749537391155, 9.576458112038265, -18.401548591382713, -2.548089970757473, 4.8326353654047285, 4.159862796680489, -6.095749589432542, -9.576458112038265, 18.40154876129064, 2.548089970757473, -4.832635398486335, -1.5010909254842677, 3.9595529168134234, -2.548089970757473, 4.8326353654047285, 7.693972393822567, -17.137718068702277, 1.5010909254842677, -3.9595529366481834, 2.548089970757473, -4.832635398486335, -7.693972393822567, 17.13771822202537, -8.563960814901792, 17.757659579274186, 4.159862796680489, -6.095749589432542, 1.5010909254842677, -3.9595529366481834, 8.563960814901792, -17.75765941801378, -4.159862796680489, 6.095749537391155, -1.5010909254842677, 3.9595529168134234, 4.159862796680489, -6.095749589432542, -9.576458112038265, 18.40154876129064, 2.548089970757473, -4.832635398486335, -4.159862796680489, 6.095749537391155, 9.576458112038265, -18.401548591382713, -2.548089970757473, 4.8326353654047285, 1.5010909254842677, -3.9595529366481834, 2.548089970757473, -4.832635398486335, -7.693972393822567, 17.13771822202537, -1.5010909254842677, 3.9595529168134234, -2.548089970757473, 4.8326353654047285, 7.693972393822567, -17.137718068702277] Idx=4 IsSwitch=False SeasonRating=400.0 bus1=4caed44976 bus2=bd90054045 Length=0.2943825963784868 ;
new Line.99169a339a Bus1=3.3 Bus2=4.3 C0=3.4 C1=3.4 CMatrix=[2.270366128] EmergAmps=600.0 Geometry= LineCode=11 NormAmps=400.0 NumCust=0 Parent=0 Phases=1 R0=0.058 R1=0.058 Rg=0.01805 Rho=100.0 RMatrix=[0.251742424] Spacing= TotalCust=0 Units=0 X0=0.1206 X1=0.1206 Xg=0.155081 XMatrix=[0.255208333] Yprim=[9.795002670864049, -9.929857042351072, -9.795002670864049, 9.929857127941858, -9.795002670864049, 9.929857127941858, 9.795002670864049, -9.929857042351072] Idx=5 IsSwitch=False SeasonRating=400.0 bus1=5f8a30b486 bus2=1169247d9f Length=0.1951266972542146 ;
new Line.5de987b37b Bus1=3.3 Bus2=5.3 C0=3.4 C1=3.4 CMatrix=[2.270366128] EmergAmps=600.0 Geometry= LineCode=11 NormAmps=400.0 NumCust=0 Parent=0 Phases=1 R0=0.058 R1=0.058 Rg=0.01805 Rho=100.0 RMatrix=[0.251742424] Spacing= TotalCust=0 Units=0 X0=0.1206 X1=0.1206 Xg=0.155081 XMatrix=[0.255208333] Yprim=[6.027693951300954, -6.110681170417655, -6.027693951300954, 6.110681309502683, -6.027693951300954, 6.110681309502683, 6.027693951300954, -6.110681170417655] Idx=6 IsSwitch=False SeasonRating=400.0 bus1=5f8a30b486 bus2=d9a1fcc6f2 Length=0.3364841323553656 ;
new Line.f4c6bb8e33 Bus1=5.3 Bus2=6.3 C0=3.4 C1=3.4 CMatrix=[2.270366128] EmergAmps=600.0 Geometry= LineCode=11 NormAmps=400.0 NumCust=0 Parent=0 Phases=1 R0=0.058 R1=0.058 Rg=0.01805 Rho=100.0 RMatrix=[0.251742424] Spacing= TotalCust=0 Units=0 X0=0.1206 X1=0.1206 Xg=0.155081 XMatrix=[0.255208333] Yprim=[7.836002136691239, -7.943885595365004, -7.836002136691239, 7.943885702353487, -7.836002136691239, 7.943885702353487, 7.836002136691239, -7.943885595365004] Idx=7 IsSwitch=False SeasonRating=400.0 bus1=d9a1fcc6f2 bus2=ad8820a979 Length=0.25916504274881147 ;
new Line.156d624dda Bus1=7.1.2.3 Bus2=8.1.2.3 C0=1.6 C1=3.4 CMatrix=[2.8517100719999995, -0.920293787, -0.350755566, -0.920293787, 3.004631862, -0.585011253, -0.350755566, -0.585011253, 2.71134756] EmergAmps=600.0 Geometry= LineCode=1 NormAmps=400.0 NumCust=0 Parent=0 Phases=3 R0=0.1784 R1=0.058 Rg=0.01805 Rho=100.0 RMatrix=[0.086666667, 0.029545455, 0.02907197, 0.029545455, 0.088371212, 0.029924242, 0.02907197, 0.029924242, 0.087405303] Spacing= TotalCust=0 Units=0 X0=0.4047 X1=0.1206 Xg=0.155081 XMatrix=[0.204166667, 0.095018939, 0.072897727, 0.095018939, 0.198522727, 0.080227273, 0.072897727, 0.080227273, 0.201723485] Yprim=[12.845941222352682, -26.636489261404336, -6.239794195020733, 9.143624349454555, -2.2516363882263994, 5.9393293917491, -12.845941222352682, 26.636489368911274, 6.239794195020733, -9.143624384148813, 2.2516363882263994, -5.939329404972273, -6.239794195020733, 9.143624349454555, 14.364687168057396, -27.602323028664006, -3.822134956136208, 7.2489530756750975, 6.239794195020733, -9.143624384148813, -14.364687168057396, 27.60232314193596, 3.822134956136208, -7.248953097729502, -2.2516363882263994, 5.9393293917491, -3.822134956136208, 7.2489530756750975, 11.540958590733846, -25.706577230822656, 2.2516363882263994, -5.939329404972273, 3.822134956136208, -7.248953097729502, -11.540958590733846, 25.70657733303805, -12.845941222352682, 26.636489368911274, 6.239794195020733, -9.143624384148813, 2.2516363882263994, -5.939329404972273, 12.845941222352682, -26.636489261404336, -6.239794195020733, 9.143624349454555, -2.2516363882263994, 5.9393293917491, 6.239794195020733, -9.143624384148813, -14.364687168057396, 27.60232314193596, 3.822134956136208, -7.248953097729502, -6.239794195020733, 9.143624349454555, 14.364687168057396, -27.602323028664006, -3.822134956136208, 7.2489530756750975, 2.2516363882263994, -5.939329404972273, 3.822134956136208, -7.248953097729502, -11.540958590733846, 25.70657733303805, -2.2516363882263994, 5.9393293917491, -3.822134956136208, 7.2489530756750975, 11.540958590733846, -25.706577230822656] Idx=8 IsSwitch=False SeasonRating=400.0 bus1=bd90054045 bus2=45fa7b4a4e Length=0.20004199896374847 ;
new Line.0fe6e5c23a Bus1=8.2 Bus2=12.2 C0=3.4 C1=3.4 CMatrix=[2.270366128] EmergAmps=600.0 Geometry= LineCode=10 NormAmps=400.0 NumCust=0 Parent=0 Phases=1 R0=0.058 R1=0.058 Rg=0.01805 Rho=100.0 RMatrix=[0.251742424] Spacing= TotalCust=0 Units=0 X0=0.1206 X1=0.1206 Xg=0.155081 XMatrix=[0.255208333] Yprim=[8.706669040768043, -8.826539572992017, -8.706669040768043, 8.826539669281651, -8.706669040768043, 8.826539669281651, 8.706669040768043, -8.826539572992017] Idx=9 IsSwitch=False SeasonRating=400.0 bus1=a22e2dde28 bus2=a35ba7c6c6 Length=0.2267828285667814 ;
new Line.668aeb1628 Bus1=8.1 Bus2=9.1 C0=3.4 C1=3.4 CMatrix=[2.270366128] EmergAmps=600.0 Geometry= LineCode=9 NormAmps=400.0 NumCust=0 Parent=0 Phases=1 R0=0.058 R1=0.058 Rg=0.01805 Rho=100.0 RMatrix=[0.251742424] Spacing= TotalCust=0 Units=0 X0=0.1206 X1=0.1206 Xg=0.155081 XMatrix=[0.255208333] Yprim=[8.706669040768043, -8.826539572992017, -8.706669040768043, 8.826539669281651, -8.706669040768043, 8.826539669281651, 8.706669040768043, -8.826539572992017] Idx=10 IsSwitch=False SeasonRating=400.0 bus1=7fc30b9abc bus2=56151ef4f0 Length=0.218452865397593 ;
new Line.6d24ab62e0 Bus1=8.1.2.3 Bus2=13.1.2.3 C0=1.6 C1=3.4 CMatrix=[2.8517100719999995, -0.920293787, -0.350755566, -0.920293787, 3.004631862, -0.585011253, -0.350755566, -0.585011253, 2.71134756] EmergAmps=600.0 Geometry= LineCode=1 NormAmps=400.0 NumCust=0 Parent=0 Phases=3 R0=0.1784 R1=0.058 Rg=0.01805 Rho=100.0 RMatrix=[0.086666667, 0.029545455, 0.02907197, 0.029545455, 0.088371212, 0.029924242, 0.02907197, 0.029924242, 0.087405303] Spacing= TotalCust=0 Units=0 X0=0.4047 X1=0.1206 Xg=0.155081 XMatrix=[0.204166667, 0.095018939, 0.072897727, 0.095018939, 0.198522727, 0.080227273, 0.072897727, 0.080227273, 0.201723485] Yprim=[8.563960814901792, -17.75765941801378, -4.159862796680489, 6.095749537391155, -1.5010909254842677, 3.9595529168134234, -8.563960814901792, 17.757659579274186, 4.159862796680489, -6.095749589432542, 1.5010909254842677, -3.9595529366481834, -4.159862796680489, 6.095749537391155, 9.576458112038265, -18.401548591382713, -2.548089970757473, 4.8326353654047285, 4.159862796680489, -6.095749589432542, -9.576458112038265, 18.40154876129064, 2.548089970757473, -4.832635398486335, -1.5010909254842677, 3.9595529168134234, -2.548089970757473, 4.8326353654047285, 7.693972393822567, -17.137718068702277, 1.5010909254842677, -3.9595529366481834, 2.548089970757473, -4.832635398486335, -7.693972393822567, 17.13771822202537, -8.563960814901792, 17.757659579274186, 4.159862796680489, -6.095749589432542, 1.5010909254842677, -3.9595529366481834, 8.563960814901792, -17.75765941801378, -4.159862796680489, 6.095749537391155, -1.5010909254842677, 3.9595529168134234, 4.159862796680489, -6.095749589432542, -9.576458112038265, 18.40154876129064, 2.548089970757473, -4.832635398486335, -4.159862796680489, 6.095749537391155, 9.576458112038265, -18.401548591382713, -2.548089970757473, 4.8326353654047285, 1.5010909254842677, -3.9595529366481834, 2.548089970757473, -4.832635398486335, -7.693972393822567, 17.13771822202537, -1.5010909254842677, 3.9595529168134234, -2.548089970757473, 4.8326353654047285, 7.693972393822567, -17.137718068702277] Idx=11 IsSwitch=False SeasonRating=400.0 bus1=45fa7b4a4e bus2=b472ec9cff Length=0.3068889955423428 ;
new Line.cdc1660b11 Bus1=9r.1 Bus2=14.1 C0=3.4 C1=3.4 CMatrix=[2.270366128] EmergAmps=600.0 Geometry= LineCode=9 NormAmps=400.0 NumCust=0 Parent=0 Phases=1 R0=0.058 R1=0.058 Rg=0.01805 Rho=100.0 RMatrix=[0.251742424] Spacing= TotalCust=0 Units=0 X0=0.1206 X1=0.1206 Xg=0.155081 XMatrix=[0.255208333] Yprim=[4.609413021583083, -4.672873760680453, -4.609413021583083, 4.672873942560875, -4.609413021583083, 4.672873942560875, 4.609413021583083, -4.672873760680453] Idx=12 IsSwitch=False SeasonRating=400.0 bus1=0feedb1f48 bus2=a0704d9953 Length=0.4270116161902826 ;
new Line.291260cda9 Bus1=13.3 Bus2=34.3 C0=3.4 C1=3.4 CMatrix=[2.270366128] EmergAmps=600.0 Geometry= LineCode=11 NormAmps=400.0 NumCust=0 Parent=0 Phases=1 R0=0.058 R1=0.058 Rg=0.01805 Rho=100.0 RMatrix=[0.251742424] Spacing= TotalCust=0 Units=0 X0=0.1206 X1=0.1206 Xg=0.155081 XMatrix=[0.255208333] Yprim=[13.060003561152065, -13.239809439729388, -13.060003561152065, 13.239809503922478, -13.060003561152065, 13.239809503922478, 13.060003561152065, -13.239809439729388] Idx=13 IsSwitch=False SeasonRating=400.0 bus1=a0cd2717e8 bus2=1cf1bad13d Length=0.1564903891617333 ;
new Line.1c2cde7b62 Bus1=13.1.2.3 Bus2=18.1.2.3 C0=1.6 C1=3.4 CMatrix=[3.004631862, -0.585011253, -0.920293787, -0.585011253, 2.71134756, -0.350755566, -0.920293787, -0.350755566, 2.8517100719999995] EmergAmps=600.0 Geometry= LineCode=2 NormAmps=400.0 NumCust=0 Parent=0 Phases=3 R0=0.1784 R1=0.058 Rg=0.01805 Rho=100.0 RMatrix=[0.088371212, 0.02992424, 0.029545455, 0.02992424, 0.087405303, 0.02907197, 0.029545455, 0.02907197, 0.086666667] Spacing= TotalCust=0 Units=0 X0=0.4047 X1=0.1206 Xg=0.155081 XMatrix=[0.198522727, 0.080227273, 0.095018939, 0.080227273, 0.201723485, 0.072897727, 0.095018939, 0.072897727, 0.204166667] Yprim=[3.4823484325344802, -6.6914717689308825, -0.9265782275935145, 1.7573218000400386, -1.5126773719649902, 2.2166360777500764, -3.4823484325344802, 6.691472236177687, 0.9265782275935145, -1.7573218910144577, 1.5126773719649902, -2.2166362208638923, -0.9265782275935145, 1.7573218000400386, 2.797808170793111, -6.231897078363182, -0.5458512331612879, 1.439837398965945, 0.9265782275935145, -1.7573218910144577, -2.797808170793111, 6.231897500001685, 0.5458512331612879, -1.4398374535115348, -1.5126773719649902, 2.2166360777500764, -0.5458512331612879, 1.439837398965945, 3.1141675612477306, -6.457330323813868, 1.5126773719649902, -2.2166362208638923, 0.5458512331612879, -1.4398374535115348, -3.1141675612477306, 6.4573307672799825, -3.4823484325344802, 6.691472236177687, 0.9265782275935145, -1.7573218910144577, 1.5126773719649902, -2.2166362208638923, 3.4823484325344802, -6.6914717689308825, -0.9265782275935145, 1.7573218000400386, -1.5126773719649902, 2.2166360777500764, 0.9265782275935145, -1.7573218910144577, -2.797808170793111, 6.231897500001685, 0.5458512331612879, -1.4398374535115348, -0.9265782275935145, 1.7573218000400386, 2.797808170793111, -6.231897078363182, -0.5458512331612879, 1.439837398965945, 1.5126773719649902, -2.2166362208638923, 0.5458512331612879, -1.4398374535115348, -3.1141675612477306, 6.4573307672799825, -1.5126773719649902, 2.2166360777500764, -0.5458512331612879, 1.439837398965945, 3.1141675612477306, -6.457330323813868] Idx=14 IsSwitch=False SeasonRating=400.0 bus1=b472ec9cff bus2=47539c6991 Length=0.8430098382725008 ;
new Line.9658558dff Bus1=14.1 Bus2=11.1 C0=3.4 C1=3.4 CMatrix=[2.270366128] EmergAmps=600.0 Geometry= LineCode=9 NormAmps=400.0 NumCust=0 Parent=0 Phases=1 R0=0.058 R1=0.058 Rg=0.01805 Rho=100.0 RMatrix=[0.251742424] Spacing= TotalCust=0 Units=0 X0=0.1206 X1=0.1206 Xg=0.155081 XMatrix=[0.255208333] Yprim=[7.836002136691239, -7.943885595365004, -7.836002136691239, 7.943885702353487, -7.836002136691239, 7.943885702353487, 7.836002136691239, -7.943885595365004] Idx=15 IsSwitch=False SeasonRating=400.0 bus1=a0704d9953 bus2=59c387fd98 Length=0.25284526139289193 ;
new Line.78b54c2aec Bus1=14.1 Bus2=10.1 C0=3.4 C1=3.4 CMatrix=[2.270366128] EmergAmps=600.0 Geometry= LineCode=9 NormAmps=400.0 NumCust=0 Parent=0 Phases=1 R0=0.058 R1=0.058 Rg=0.01805 Rho=100.0 RMatrix=[0.251742424] Spacing= TotalCust=0 Units=0 X0=0.1206 X1=0.1206 Xg=0.155081 XMatrix=[0.255208333] Yprim=[7.836002136691239, -7.943885595365004, -7.836002136691239, 7.943885702353487, -7.836002136691239, 7.943885702353487, 7.836002136691239, -7.943885595365004] Idx=16 IsSwitch=False SeasonRating=400.0 bus1=a0704d9953 bus2=69d5f3237d Length=0.2588512210346438 ;
new Line.0fc6d7c66c Bus1=15.3 Bus2=16.3 C0=3.4 C1=3.4 CMatrix=[2.270366128] EmergAmps=600.0 Geometry= LineCode=11 NormAmps=400.0 NumCust=0 Parent=0 Phases=1 R0=0.058 R1=0.058 Rg=0.01805 Rho=100.0 RMatrix=[0.251742424] Spacing= TotalCust=0 Units=0 X0=0.1206 X1=0.1206 Xg=0.155081 XMatrix=[0.255208333] Yprim=[5.224001424460827, -5.295923641086267, -5.224001424460827, 5.295923801568992, -5.224001424460827, 5.295923801568992, 5.224001424460827, -5.295923641086267] Idx=17 IsSwitch=False SeasonRating=400.0 bus1=df06ae6474 bus2=2f836386e3 Length=0.3799700785446354 ;
new Line.20871b589c Bus1=15.3 Bus2=17.3 C0=3.4 C1=3.4 CMatrix=[2.270366128] EmergAmps=600.0 Geometry= LineCode=11 NormAmps=400.0 NumCust=0 Parent=0 Phases=1 R0=0.058 R1=0.058 Rg=0.01805 Rho=100.0 RMatrix=[0.251742424] Spacing= TotalCust=0 Units=0 X0=0.1206 X1=0.1206 Xg=0.155081 XMatrix=[0.255208333] Yprim=[5.597144383350886, -5.6742039233257575, -5.597144383350886, 5.674204073109634, -5.597144383350886, 5.674204073109634, 5.597144383350886, -5.6742039233257575] Idx=18 IsSwitch=False SeasonRating=400.0 bus1=df06ae6474 bus2=7f99630c56 Length=0.353005505589881 ;
new Line.65c5e5d2e7 Bus1=18.1 Bus2=19.1 C0=3.4 C1=3.4 CMatrix=[2.270366128] EmergAmps=600.0 Geometry= LineCode=9 NormAmps=400.0 NumCust=0 Parent=0 Phases=1 R0=0.058 R1=0.058 Rg=0.01805 Rho=100.0 RMatrix=[0.251742424] Spacing= TotalCust=0 Units=0 X0=0.1206 X1=0.1206 Xg=0.155081 XMatrix=[0.255208333] Yprim=[7.836002136691239, -7.943885595365004, -7.836002136691239, 7.943885702353487, -7.836002136691239, 7.943885702353487, 7.836002136691239, -7.943885595365004] Idx=19 IsSwitch=False SeasonRating=400.0 bus1=697b541064 bus2=050fc1b7d1 Length=0.2454124163768358 ;
new Line.d54162d0e8 Bus1=18.1.2.3 Bus2=21.1.2.3 C0=1.6 C1=3.4 CMatrix=[3.004631862, -0.585011253, -0.920293787, -0.585011253, 2.71134756, -0.350755566, -0.920293787, -0.350755566, 2.8517100719999995] EmergAmps=600.0 Geometry= LineCode=2 NormAmps=400.0 NumCust=0 Parent=0 Phases=3 R0=0.1784 R1=0.058 Rg=0.01805 Rho=100.0 RMatrix=[0.088371212, 0.02992424, 0.029545455, 0.02992424, 0.087405303, 0.02907197, 0.029545455, 0.02907197, 0.086666667] Spacing= TotalCust=0 Units=0 X0=0.4047 X1=0.1206 Xg=0.155081 XMatrix=[0.198522727, 0.080227273, 0.095018939, 0.080227273, 0.201723485, 0.072897727, 0.095018939, 0.072897727, 0.204166667] Yprim=[9.576458189469822, -18.40154847958071, -2.5480901258821644, 4.832635167208151, -4.159862772903724, 6.095749555334318, -9.576458189469822, 18.40154864948864, 2.5480901258821644, -4.832635200289758, 4.159862772903724, -6.095749607375705, -2.5480901258821644, 4.832635167208151, 7.693972469681056, -17.137717971681543, -1.5010908911935426, 3.95955297732196, 2.5480901258821644, -4.832635200289758, -7.693972469681056, 17.137718125004636, 1.5010908911935426, -3.9595529971567203, -4.159862772903724, 6.095749555334318, -1.5010908911935426, 3.95955297732196, 8.56396079343126, -17.757659448759547, 4.159862772903724, -6.095749607375705, 1.5010908911935426, -3.9595529971567203, -8.56396079343126, 17.757659610019953, -9.576458189469822, 18.40154864948864, 2.5480901258821644, -4.832635200289758, 4.159862772903724, -6.095749607375705, 9.576458189469822, -18.40154847958071, -2.5480901258821644, 4.832635167208151, -4.159862772903724, 6.095749555334318, 2.5480901258821644, -4.832635200289758, -7.693972469681056, 17.137718125004636, 1.5010908911935426, -3.9595529971567203, -2.5480901258821644, 4.832635167208151, 7.693972469681056, -17.137717971681543, -1.5010908911935426, 3.95955297732196, 4.159862772903724, -6.095749607375705, 1.5010908911935426, -3.9595529971567203, -8.56396079343126, 17.757659610019953, -4.159862772903724, 6.095749555334318, -1.5010908911935426, 3.95955297732196, 8.56396079343126, -17.757659448759547] Idx=20 IsSwitch=False SeasonRating=400.0 bus1=47539c6991 bus2=0b3bb9ef27 Length=0.30423213392339155 ;
new Line.0f68ec5ee1 Bus1=19.1 Bus2=20.1 C0=3.4 C1=3.4 CMatrix=[2.270366128] EmergAmps=600.0 Geometry= LineCode=9 NormAmps=400.0 NumCust=0 Parent=0 Phases=1 R0=0.058 R1=0.058 Rg=0.01805 Rho=100.0 RMatrix=[0.251742424] Spacing= TotalCust=0 Units=0 X0=0.1206 X1=0.1206 Xg=0.155081 XMatrix=[0.255208333] Yprim=[6.027693951300954, -6.110681170417655, -6.027693951300954, 6.110681309502683, -6.027693951300954, 6.110681309502683, 6.027693951300954, -6.110681170417655] Idx=21 IsSwitch=False SeasonRating=400.0 bus1=050fc1b7d1 bus2=a2eace63f6 Length=0.31570482176536946 ;
new Line.18c35c4cba Bus1=21.2 Bus2=22.2 C0=3.4 C1=3.4 CMatrix=[2.270366128] EmergAmps=600.0 Geometry= LineCode=10 NormAmps=400.0 NumCust=0 Parent=0 Phases=1 R0=0.058 R1=0.058 Rg=0.01805 Rho=100.0 RMatrix=[0.251742424] Spacing= TotalCust=0 Units=0 X0=0.1206 X1=0.1206 Xg=0.155081 XMatrix=[0.255208333] Yprim=[3.731429588900591, -3.7828024907306084, -3.731429588900591, 3.782802715406423, -3.731429588900591, 3.782802715406423, 3.731429588900591, -3.7828024907306084] Idx=22 IsSwitch=False SeasonRating=400.0 bus1=dd2aa73f5e bus2=29d27adc24 Length=0.5393469619088102 ;
new Line.ec9a46f272 Bus1=21.1.2.3 Bus2=23.1.2.3 C0=1.6 C1=3.4 CMatrix=[3.004631862, -0.585011253, -0.920293787, -0.585011253, 2.71134756, -0.350755566, -0.920293787, -0.350755566, 2.8517100719999995] EmergAmps=600.0 Geometry= LineCode=2 NormAmps=400.0 NumCust=0 Parent=0 Phases=3 R0=0.1784 R1=0.058 Rg=0.01805 Rho=100.0 RMatrix=[0.088371212, 0.02992424, 0.029545455, 0.02992424, 0.087405303, 0.02907197, 0.029545455, 0.02907197, 0.086666667] Spacing= TotalCust=0 Units=0 X0=0.4047 X1=0.1206 Xg=0.155081 XMatrix=[0.198522727, 0.080227273, 0.095018939, 0.080227273, 0.201723485, 0.072897727, 0.095018939, 0.072897727, 0.204166667] Yprim=[11.49174982736378, -22.08185823779643, -3.0577081510585957, 5.799162212779705, -4.991835327484466, 7.314899485483025, -11.49174982736378, 22.081858379386368, 3.0577081510585957, -5.7991622403477106, 4.991835327484466, -7.314899528850848, -3.0577081510585957, 5.799162212779705, 9.232766963617266, -20.565261622236317, -1.8013090694322507, 4.751463580059098, 3.0577081510585957, -5.7991622403477106, -9.232766963617266, 20.56526175000556, 1.8013090694322507, -4.7514635965880645, -4.991835327484466, 7.314899485483025, -1.8013090694322507, 4.751463580059098, 10.27675295211751, -21.309191397640273, 4.991835327484466, -7.314899528850848, 1.8013090694322507, -4.7514635965880645, -10.27675295211751, 21.309191532023945, -11.49174982736378, 22.081858379386368, 3.0577081510585957, -5.7991622403477106, 4.991835327484466, -7.314899528850848, 11.49174982736378, -22.08185823779643, -3.0577081510585957, 5.799162212779705, -4.991835327484466, 7.314899485483025, 3.0577081510585957, -5.7991622403477106, -9.232766963617266, 20.56526175000556, 1.8013090694322507, -4.7514635965880645, -3.0577081510585957, 5.799162212779705, 9.232766963617266, -20.565261622236317, -1.8013090694322507, 4.751463580059098, 4.991835327484466, -7.314899528850848, 1.8013090694322507, -4.7514635965880645, -10.27675295211751, 21.309191532023945, -4.991835327484466, 7.314899485483025, -1.8013090694322507, 4.751463580059098, 10.27675295211751, -21.309191397640273] Idx=23 IsSwitch=False SeasonRating=400.0 bus1=0b3bb9ef27 bus2=157a0f5443 Length=0.23923334919839373 ;
new Line.b9fafc6402 Bus1=23.3 Bus2=24.3 C0=3.4 C1=3.4 CMatrix=[2.270366128] EmergAmps=600.0 Geometry= LineCode=11 NormAmps=400.0 NumCust=0 Parent=0 Phases=1 R0=0.058 R1=0.058 Rg=0.01805 Rho=100.0 RMatrix=[0.251742424] Spacing= TotalCust=0 Units=0 X0=0.1206 X1=0.1206 Xg=0.155081 XMatrix=[0.255208333] Yprim=[3.5618191530414722, -3.6108569020587393, -3.5618191530414722, 3.6108571374334026, -3.5618191530414722, 3.6108571374334026, 3.5618191530414722, -3.6108569020587393] Idx=24 IsSwitch=False SeasonRating=400.0 bus1=b6800cd4d4 bus2=20bc34dc61 Length=0.5453621353478549 ;
new Line.b6ea1b1e1d Bus1=23.1.2.3 Bus2=25.1.2.3 C0=1.6 C1=3.4 CMatrix=[3.004631862, -0.585011253, -0.920293787, -0.585011253, 2.71134756, -0.350755566, -0.920293787, -0.350755566, 2.8517100719999995] EmergAmps=600.0 Geometry= LineCode=2 NormAmps=400.0 NumCust=0 Parent=0 Phases=3 R0=0.1784 R1=0.058 Rg=0.01805 Rho=100.0 RMatrix=[0.088371212, 0.02992424, 0.029545455, 0.02992424, 0.087405303, 0.02907197, 0.029545455, 0.02907197, 0.086666667] Spacing= TotalCust=0 Units=0 X0=0.4047 X1=0.1206 Xg=0.155081 XMatrix=[0.198522727, 0.080227273, 0.095018939, 0.080227273, 0.201723485, 0.072897727, 0.095018939, 0.072897727, 0.204166667] Yprim=[10.447045297603438, -20.074416552784125, -2.779734682780542, 5.271965642718564, -4.5380321158949695, 6.649908614887073, -10.447045297603438, 20.07441670853306, 2.779734682780542, -5.271965673043371, 4.5380321158949695, -6.649908662591678, -2.779734682780542, 5.271965642718564, 8.393424512379331, -18.69569235945889, -1.6375536994838633, 4.31951234235274, 2.779734682780542, -5.271965673043371, -8.393424512379331, 18.695692500005055, 1.6375536994838633, -4.3195123605346035, -4.5380321158949695, 6.649908614887073, -1.6375536994838633, 4.31951234235274, 9.342502683743188, -19.371992154017907, 4.5380321158949695, -6.649908662591678, 1.6375536994838633, -4.3195123605346035, -9.342502683743188, 19.371992301839946, -10.447045297603438, 20.07441670853306, 2.779734682780542, -5.271965673043371, 4.5380321158949695, -6.649908662591678, 10.447045297603438, -20.074416552784125, -2.779734682780542, 5.271965642718564, -4.5380321158949695, 6.649908614887073, 2.779734682780542, -5.271965673043371, -8.393424512379331, 18.695692500005055, 1.6375536994838633, -4.3195123605346035, -2.779734682780542, 5.271965642718564, 8.393424512379331, -18.69569235945889, -1.6375536994838633, 4.31951234235274, 4.5380321158949695, -6.649908662591678, 1.6375536994838633, -4.3195123605346035, -9.342502683743188, 19.371992301839946, -4.5380321158949695, 6.649908614887073, -1.6375536994838633, 4.31951234235274, 9.342502683743188, -19.371992154017907] Idx=25 IsSwitch=False SeasonRating=400.0 bus1=157a0f5443 bus2=06a4678932 Length=0.2730543717614696 ;
new Line.10e262ce14 Bus1=25r.1.3 Bus2=26.1.3 C0=1.6 C1=3.4 CMatrix=[2.569829596, -0.52995137, -0.52995137, 2.597460011] EmergAmps=600.0 Geometry= LineCode=7 NormAmps=400.0 NumCust=0 Parent=0 Phases=2 R0=0.1784 R1=0.058 Rg=0.01805 Rho=100.0 RMatrix=[0.086666667, 0.02907197, 0.02907197, 0.087405303] Spacing= TotalCust=0 Units=0 X0=0.4047 X1=0.1206 Xg=0.155081 XMatrix=[0.204166667, 0.072897727, 0.072897727, 0.201723485] Yprim=[5.860384602646994, -13.525771481219769, -2.2330752424388978, 4.764880546150121, -5.860384602646994, 13.525771650760282, 2.2330752424388978, -4.764880581112839, -2.2330752424388978, 4.764880546150121, 6.013774644554915, -13.60166808460249, 2.2330752424388978, -4.764880581112839, -6.013774644554915, 13.601668255965878, -5.860384602646994, 13.525771650760282, 2.2330752424388978, -4.764880581112839, 5.860384602646994, -13.525771481219769, -2.2330752424388978, 4.764880546150121, 2.2330752424388978, -4.764880581112839, -6.013774644554915, 13.601668255965878, -2.2330752424388978, 4.764880546150121, 6.013774644554915, -13.60166808460249] Idx=26 IsSwitch=False SeasonRating=400.0 bus1=0b3bb9ef27 bus2=1cf1bad13d Length=0.3645164824289445 ;
new Line.4ce4ce72f7 Bus1=25.1.2.3 Bus2=28.1.2.3 C0=1.6 C1=3.4 CMatrix=[3.004631862, -0.585011253, -0.920293787, -0.585011253, 2.71134756, -0.350755566, -0.920293787, -0.350755566, 2.8517100719999995] EmergAmps=600.0 Geometry= LineCode=2 NormAmps=400.0 NumCust=0 Parent=0 Phases=3 R0=0.1784 R1=0.058 Rg=0.01805 Rho=100.0 RMatrix=[0.088371212, 0.02992424, 0.029545455, 0.02992424, 0.087405303, 0.02907197, 0.029545455, 0.02907197, 0.086666667] Spacing= TotalCust=0 Units=0 X0=0.4047 X1=0.1206 Xg=0.155081 XMatrix=[0.198522727, 0.080227273, 0.095018939, 0.080227273, 0.201723485, 0.072897727, 0.095018939, 0.072897727, 0.204166667] Yprim=[14.364687284204724, -27.602322860961, -3.8221351888232427, 7.2489527783802306, -6.239794159355581, 9.143624376369296, -14.364687284204724, 27.60232297423295, 3.8221351888232427, -7.248952800434635, 6.239794159355581, -9.143624411063554, -3.8221351888232427, 7.2489527783802306, 11.540958704521579, -25.706577085291556, -2.2516363367903125, 5.939329482511907, 3.8221351888232427, -7.248952800434635, -11.540958704521579, 25.70657718750695, 2.2516363367903125, -5.93932949573508, -6.239794159355581, 9.143624376369296, -2.2516363367903125, 5.939329482511907, 12.845941190146881, -26.636489307522982, 6.239794159355581, -9.143624411063554, 2.2516363367903125, -5.93932949573508, -12.845941190146881, 26.63648941502992, -14.364687284204724, 27.60232297423295, 3.8221351888232427, -7.248952800434635, 6.239794159355581, -9.143624411063554, 14.364687284204724, -27.602322860961, -3.8221351888232427, 7.2489527783802306, -6.239794159355581, 9.143624376369296, 3.8221351888232427, -7.248952800434635, -11.540958704521579, 25.70657718750695, 2.2516363367903125, -5.93932949573508, -3.8221351888232427, 7.2489527783802306, 11.540958704521579, -25.706577085291556, -2.2516363367903125, 5.939329482511907, 6.239794159355581, -9.143624411063554, 2.2516363367903125, -5.93932949573508, -12.845941190146881, 26.63648941502992, -6.239794159355581, 9.143624376369296, -2.2516363367903125, 5.939329482511907, 12.845941190146881, -26.636489307522982] Idx=27 IsSwitch=False SeasonRating=400.0 bus1=06a4678932 bus2=b788441446 Length=0.20480974016252892 ;
new Line.7229c61763 Bus1=26.1.3 Bus2=27.1.3 C0=1.6 C1=3.4 CMatrix=[2.569829596, -0.52995137, -0.52995137, 2.597460011] EmergAmps=600.0 Geometry= LineCode=7 NormAmps=400.0 NumCust=0 Parent=0 Phases=2 R0=0.1784 R1=0.058 Rg=0.01805 Rho=100.0 RMatrix=[0.086666667, 0.02907197, 0.02907197, 0.087405303] Spacing= TotalCust=0 Units=0 X0=0.4047 X1=0.1206 Xg=0.155081 XMatrix=[0.204166667, 0.072897727, 0.072897727, 0.201723485] Yprim=[7.458671312459808, -17.214618331393588, -2.8420957631040507, 6.0643934394001775, -7.458671312459808, 17.21461846460399, 2.8420957631040507, -6.064393466870884, -2.8420957631040507, 6.0643934394001775, 7.653895002160799, -17.311214009313908, 2.8420957631040507, -6.064393466870884, -7.653895002160799, 17.31121414395657, -7.458671312459808, 17.21461846460399, 2.8420957631040507, -6.064393466870884, 7.458671312459808, -17.214618331393588, -2.8420957631040507, 6.0643934394001775, 2.8420957631040507, -6.064393466870884, -7.653895002160799, 17.31121414395657, -2.8420957631040507, 6.0643934394001775, 7.653895002160799, -17.311214009313908] Idx=28 IsSwitch=False SeasonRating=400.0 bus1=1cf1bad13d bus2=0d732b7c36 Length=0.27914929042855063 ;
new Line.06bd24e89f Bus1=26.3 Bus2=31.3 C0=3.4 C1=3.4 CMatrix=[2.270366128] EmergAmps=600.0 Geometry= LineCode=11 NormAmps=400.0 NumCust=0 Parent=0 Phases=1 R0=0.058 R1=0.058 Rg=0.01805 Rho=100.0 RMatrix=[0.251742424] Spacing= TotalCust=0 Units=0 X0=0.1206 X1=0.1206 Xg=0.155081 XMatrix=[0.255208333] Yprim=[8.706669040768043, -8.826539572992017, -8.706669040768043, 8.826539669281651, -8.706669040768043, 8.826539669281651, 8.706669040768043, -8.826539572992017] Idx=29 IsSwitch=False SeasonRating=400.0 bus1=fba11f27dc bus2=5cebec11bd Length=0.22660963339248336 ;
new Line.793dd4927f Bus1=27.1 Bus2=33.1 C0=3.4 C1=3.4 CMatrix=[2.270366128] EmergAmps=600.0 Geometry= LineCode=9 NormAmps=400.0 NumCust=0 Parent=0 Phases=1 R0=0.058 R1=0.058 Rg=0.01805 Rho=100.0 RMatrix=[0.251742424] Spacing= TotalCust=0 Units=0 X0=0.1206 X1=0.1206 Xg=0.155081 XMatrix=[0.255208333] Yprim=[3.9180010683456197, -3.9719426371997772, -3.9180010683456197, 3.9719428511767436, -3.9180010683456197, 3.9719428511767436, 3.9180010683456197, -3.9719426371997772] Idx=30 IsSwitch=False SeasonRating=400.0 bus1=78dcbf8e33 bus2=69d5f3237d Length=0.49231838616306384 ;
new Line.685cce8353 Bus1=28.1.2.3 Bus2=29.1.2.3 C0=1.6 C1=3.4 CMatrix=[3.004631862, -0.585011253, -0.920293787, -0.585011253, 2.71134756, -0.350755566, -0.920293787, -0.350755566, 2.8517100719999995] EmergAmps=600.0 Geometry= LineCode=2 NormAmps=400.0 NumCust=0 Parent=0 Phases=3 R0=0.1784 R1=0.058 Rg=0.01805 Rho=100.0 RMatrix=[0.088371212, 0.02992424, 0.029545455, 0.02992424, 0.087405303, 0.02907197, 0.029545455, 0.02907197, 0.086666667] Spacing= TotalCust=0 Units=0 X0=0.4047 X1=0.1206 Xg=0.155081 XMatrix=[0.198522727, 0.080227273, 0.095018939, 0.080227273, 0.201723485, 0.072897727, 0.095018939, 0.072897727, 0.204166667] Yprim=[9.576458189469822, -18.40154847958071, -2.5480901258821644, 4.832635167208151, -4.159862772903724, 6.095749555334318, -9.576458189469822, 18.40154864948864, 2.5480901258821644, -4.832635200289758, 4.159862772903724, -6.095749607375705, -2.5480901258821644, 4.832635167208151, 7.693972469681056, -17.137717971681543, -1.5010908911935426, 3.95955297732196, 2.5480901258821644, -4.832635200289758, -7.693972469681056, 17.137718125004636, 1.5010908911935426, -3.9595529971567203, -4.159862772903724, 6.095749555334318, -1.5010908911935426, 3.95955297732196, 8.56396079343126, -17.757659448759547, 4.159862772903724, -6.095749607375705, 1.5010908911935426, -3.9595529971567203, -8.56396079343126, 17.757659610019953, -9.576458189469822, 18.40154864948864, 2.5480901258821644, -4.832635200289758, 4.159862772903724, -6.095749607375705, 9.576458189469822, -18.40154847958071, -2.5480901258821644, 4.832635167208151, -4.159862772903724, 6.095749555334318, 2.5480901258821644, -4.832635200289758, -7.693972469681056, 17.137718125004636, 1.5010908911935426, -3.9595529971567203, -2.5480901258821644, 4.832635167208151, 7.693972469681056, -17.137717971681543, -1.5010908911935426, 3.95955297732196, 4.159862772903724, -6.095749607375705, 1.5010908911935426, -3.9595529971567203, -8.56396079343126, 17.757659610019953, -4.159862772903724, 6.095749555334318, -1.5010908911935426, 3.95955297732196, 8.56396079343126, -17.757659448759547] Idx=31 IsSwitch=False SeasonRating=400.0 bus1=b788441446 bus2=88095ae9d4 Length=0.31366292487984176 ;
new Line.07a7cd9018 Bus1=29.1.2.3 Bus2=30.1.2.3 C0=1.6 C1=3.4 CMatrix=[3.004631862, -0.585011253, -0.920293787, -0.585011253, 2.71134756, -0.350755566, -0.920293787, -0.350755566, 2.8517100719999995] EmergAmps=600.0 Geometry= LineCode=2 NormAmps=400.0 NumCust=0 Parent=0 Phases=3 R0=0.1784 R1=0.058 Rg=0.01805 Rho=100.0 RMatrix=[0.088371212, 0.02992424, 0.029545455, 0.02992424, 0.087405303, 0.02907197, 0.029545455, 0.02907197, 0.086666667] Spacing= TotalCust=0 Units=0 X0=0.4047 X1=0.1206 Xg=0.155081 XMatrix=[0.198522727, 0.080227273, 0.095018939, 0.080227273, 0.201723485, 0.072897727, 0.095018939, 0.072897727, 0.204166667] Yprim=[8.208392733831275, -15.77275578705006, -2.1840772507561392, 4.142258704510298, -3.5655966624889057, 5.224928174178509, -8.208392733831275, 15.772755985275978, 2.1840772507561392, -4.142258743105506, 3.5655966624889057, -5.224928234893461, -2.1840772507561392, 4.142258704510298, 6.594833545440904, -14.68947249969846, -1.2866493353087503, 3.3939025458509224, 2.1840772507561392, -4.142258743105506, -6.594833545440904, 14.689472678575402, 1.2866493353087503, -3.393902568991476, -3.5655966624889057, 5.224928174178509, -1.2866493353087503, 3.3939025458509224, 7.340537822941079, -15.22085090616568, 3.5655966624889057, -5.224928234893461, 1.2866493353087503, -3.393902568991476, -7.340537822941079, 15.22085109430282, -8.208392733831275, 15.772755985275978, 2.1840772507561392, -4.142258743105506, 3.5655966624889057, -5.224928234893461, 8.208392733831275, -15.77275578705006, -2.1840772507561392, 4.142258704510298, -3.5655966624889057, 5.224928174178509, 2.1840772507561392, -4.142258743105506, -6.594833545440904, 14.689472678575402, 1.2866493353087503, -3.393902568991476, -2.1840772507561392, 4.142258704510298, 6.594833545440904, -14.68947249969846, -1.2866493353087503, 3.3939025458509224, 3.5655966624889057, -5.224928234893461, 1.2866493353087503, -3.393902568991476, -7.340537822941079, 15.22085109430282, -3.5655966624889057, 5.224928174178509, -1.2866493353087503, 3.3939025458509224, 7.340537822941079, -15.22085090616568] Idx=32 IsSwitch=False SeasonRating=400.0 bus1=88095ae9d4 bus2=39a9c11445 Length=0.3602593939174293 ;
new Line.cdc1660b11 Bus1=30.1.2.3 Bus2=250.1.2.3 C0=1.6 C1=3.4 CMatrix=[3.004631862, -0.585011253, -0.920293787, -0.585011253, 2.71134756, -0.350755566, -0.920293787, -0.350755566, 2.8517100719999995] EmergAmps=600.0 Geometry= LineCode=2 NormAmps=400.0 NumCust=0 Parent=0 Phases=3 R0=0.1784 R1=0.058 Rg=0.01805 Rho=100.0 RMatrix=[0.088371212, 0.02992424, 0.029545455, 0.02992424, 0.087405303, 0.02907197, 0.029545455, 0.02907197, 0.086666667] Spacing= TotalCust=0 Units=0 X0=0.4047 X1=0.1206 Xg=0.155081 XMatrix=[0.198522727, 0.080227273, 0.095018939, 0.080227273, 0.201723485, 0.072897727, 0.095018939, 0.072897727, 0.204166667] Yprim=[14.364687284204724, -27.602322860961, -3.8221351888232427, 7.2489527783802306, -6.239794159355581, 9.143624376369296, -14.364687284204724, 27.60232297423295, 3.8221351888232427, -7.248952800434635, 6.239794159355581, -9.143624411063554, -3.8221351888232427, 7.2489527783802306, 11.540958704521579, -25.706577085291556, -2.2516363367903125, 5.939329482511907, 3.8221351888232427, -7.248952800434635, -11.540958704521579, 25.70657718750695, 2.2516363367903125, -5.93932949573508, -6.239794159355581, 9.143624376369296, -2.2516363367903125, 5.939329482511907, 12.845941190146881, -26.636489307522982, 6.239794159355581, -9.143624411063554, 2.2516363367903125, -5.93932949573508, -12.845941190146881, 26.63648941502992, -14.364687284204724, 27.60232297423295, 3.8221351888232427, -7.248952800434635, 6.239794159355581, -9.143624411063554, 14.364687284204724, -27.602322860961, -3.8221351888232427, 7.2489527783802306, -6.239794159355581, 9.143624376369296, 3.8221351888232427, -7.248952800434635, -11.540958704521579, 25.70657718750695, 2.2516363367903125, -5.93932949573508, -3.8221351888232427, 7.2489527783802306, 11.540958704521579, -25.706577085291556, -2.2516363367903125, 5.939329482511907, 6.239794159355581, -9.143624411063554, 2.2516363367903125, -5.93932949573508, -12.845941190146881, 26.63648941502992, -6.239794159355581, 9.143624376369296, -2.2516363367903125, 5.939329482511907, 12.845941190146881, -26.636489307522982] Idx=33 IsSwitch=False SeasonRating=400.0 bus1=39a9c11445 bus2=2f836386e3 Length=0.19586346056773127 ;
new Line.93e32f8d41 Bus1=31.3 Bus2=32.3 C0=3.4 C1=3.4 CMatrix=[2.270366128] EmergAmps=600.0 Geometry= LineCode=11 NormAmps=400.0 NumCust=0 Parent=0 Phases=1 R0=0.058 R1=0.058 Rg=0.01805 Rho=100.0 RMatrix=[0.251742424] Spacing= TotalCust=0 Units=0 X0=0.1206 X1=0.1206 Xg=0.155081 XMatrix=[0.255208333] Yprim=[6.530001780576033, -6.619904623575059, -6.530001780576033, 6.619904751961239, -6.530001780576033, 6.619904751961239, 6.530001780576033, -6.619904623575059] Idx=34 IsSwitch=False SeasonRating=400.0 bus1=5cebec11bd bus2=62135273e3 Length=0.28693967792692776 ;
new Line.366465acce Bus1=34.3 Bus2=15.3 C0=3.4 C1=3.4 CMatrix=[2.270366128] EmergAmps=600.0 Geometry= LineCode=11 NormAmps=400.0 NumCust=0 Parent=0 Phases=1 R0=0.058 R1=0.058 Rg=0.01805 Rho=100.0 RMatrix=[0.251742424] Spacing= TotalCust=0 Units=0 X0=0.1206 X1=0.1206 Xg=0.155081 XMatrix=[0.255208333] Yprim=[19.590005341728098, -19.859714213088324, -19.590005341728098, 19.859714255883716, -19.590005341728098, 19.859714255883716, 19.590005341728098, -19.859714213088324] Idx=35 IsSwitch=False SeasonRating=400.0 bus1=1cf1bad13d bus2=df06ae6474 Length=0.09712808797530571 ;
new Line.507b3cfea6 Bus1=35.1.2 Bus2=36.1.2 C0=1.6 C1=3.4 CMatrix=[2.569829596, -0.52995137, -0.52995137, 2.597460011] EmergAmps=600.0 Geometry= LineCode=8 NormAmps=400.0 NumCust=0 Parent=0 Phases=2 R0=0.1784 R1=0.058 Rg=0.01805 Rho=100.0 RMatrix=[0.086666667, 0.02907197, 0.02907197, 0.087405303] Spacing= TotalCust=0 Units=0 X0=0.4047 X1=0.1206 Xg=0.155081 XMatrix=[0.204166667, 0.072897727, 0.072897727, 0.201723485] Yprim=[3.155591709117612, -7.28310749708689, -1.202425130544022, 2.5657048633607666, -3.155591709117612, 7.283107811947843, 1.202425130544022, -2.5657049282915287, -1.202425130544022, 2.5657048633607666, 3.2381863470680305, -7.3239748965045655, 1.202425130544022, -2.5657049282915287, -3.2381863470680305, 7.323975214750856, -3.155591709117612, 7.283107811947843, 1.202425130544022, -2.5657049282915287, 3.155591709117612, -7.28310749708689, -1.202425130544022, 2.5657048633607666, 1.202425130544022, -2.5657049282915287, -3.2381863470680305, 7.323975214750856, -1.202425130544022, 2.5657048633607666, 3.2381863470680305, -7.3239748965045655] Idx=36 IsSwitch=False SeasonRating=400.0 bus1=996988a4a8 bus2=0feedb1f48 Length=0.6716475488859205 ;
new Line.ff01e6b76f Bus1=35.1.2.3 Bus2=40.1.2.3 C0=1.6 C1=3.4 CMatrix=[2.8517100719999995, -0.920293787, -0.350755566, -0.920293787, 3.004631862, -0.585011253, -0.350755566, -0.585011253, 2.71134756] EmergAmps=600.0 Geometry= LineCode=1 NormAmps=400.0 NumCust=0 Parent=0 Phases=3 R0=0.1784 R1=0.058 Rg=0.01805 Rho=100.0 RMatrix=[0.086666667, 0.029545455, 0.02907197, 0.029545455, 0.088371212, 0.029924242, 0.02907197, 0.029924242, 0.087405303] Spacing= TotalCust=0 Units=0 X0=0.4047 X1=0.1206 Xg=0.155081 XMatrix=[0.204166667, 0.095018939, 0.072897727, 0.095018939, 0.198522727, 0.080227273, 0.072897727, 0.080227273, 0.201723485] Yprim=[10.27675297788215, -21.309191360745356, -4.991835356016586, 7.314899463951227, -1.8013091105811212, 4.751463507448854, -10.27675297788215, 21.309191495129028, 4.991835356016586, -7.31489950731905, 1.8013091105811212, -4.7514635239778205, -4.991835356016586, 7.314899463951227, 11.491749734445916, -22.081858371958827, -3.0577079649089667, 5.799162450615596, 4.991835356016586, -7.31489950731905, -11.491749734445916, 22.081858513548767, 3.0577079649089667, -5.799162478183602, -1.8013091105811212, 4.751463507448854, -3.0577079649089667, 5.799162450615596, 9.23276687258708, -20.5652617386612, 1.8013091105811212, -4.7514635239778205, 3.0577079649089667, -5.799162478183602, -9.23276687258708, 20.565261866430443, -10.27675297788215, 21.309191495129028, 4.991835356016586, -7.31489950731905, 1.8013091105811212, -4.7514635239778205, 10.27675297788215, -21.309191360745356, -4.991835356016586, 7.314899463951227, -1.8013091105811212, 4.751463507448854, 4.991835356016586, -7.31489950731905, -11.491749734445916, 22.081858513548767, 3.0577079649089667, -5.799162478183602, -4.991835356016586, 7.314899463951227, 11.491749734445916, -22.081858371958827, -3.0577079649089667, 5.799162450615596, 1.8013091105811212, -4.7514635239778205, 3.0577079649089667, -5.799162478183602, -9.23276687258708, 20.565261866430443, -1.8013091105811212, 4.751463507448854, -3.0577079649089667, 5.799162450615596, 9.23276687258708, -20.5652617386612] Idx=37 IsSwitch=False SeasonRating=400.0 bus1=80b017bf8a bus2=d9a1fcc6f2 Length=0.25234188899014504 ;
new Line.546971e4d5 Bus1=36.1 Bus2=37.1 C0=3.4 C1=3.4 CMatrix=[2.270366128] EmergAmps=600.0 Geometry= LineCode=9 NormAmps=400.0 NumCust=0 Parent=0 Phases=1 R0=0.058 R1=0.058 Rg=0.01805 Rho=100.0 RMatrix=[0.251742424] Spacing= TotalCust=0 Units=0 X0=0.1206 X1=0.1206 Xg=0.155081 XMatrix=[0.255208333] Yprim=[6.530001780576033, -6.619904623575059, -6.530001780576033, 6.619904751961239, -6.530001780576033, 6.619904751961239, 6.530001780576033, -6.619904623575059] Idx=38 IsSwitch=False SeasonRating=400.0 bus1=91c8cfca94 bus2=fc3aaf4ba4 Length=0.29477937192109116 ;
new Line.0df790b72d Bus1=36.2 Bus2=38.2 C0=3.4 C1=3.4 CMatrix=[2.270366128] EmergAmps=600.0 Geometry= LineCode=10 NormAmps=400.0 NumCust=0 Parent=0 Phases=1 R0=0.058 R1=0.058 Rg=0.01805 Rho=100.0 RMatrix=[0.251742424] Spacing= TotalCust=0 Units=0 X0=0.1206 X1=0.1206 Xg=0.155081 XMatrix=[0.255208333] Yprim=[7.836002136691239, -7.943885595365004, -7.836002136691239, 7.943885702353487, -7.836002136691239, 7.943885702353487, 7.836002136691239, -7.943885595365004] Idx=39 IsSwitch=False SeasonRating=400.0 bus1=6c1b36ed1d bus2=157a0f5443 Length=0.24895423947032458 ;
new Line.8eb813fb86 Bus1=38.2 Bus2=39.2 C0=3.4 C1=3.4 CMatrix=[2.270366128] EmergAmps=600.0 Geometry= LineCode=10 NormAmps=400.0 NumCust=0 Parent=0 Phases=1 R0=0.058 R1=0.058 Rg=0.01805 Rho=100.0 RMatrix=[0.251742424] Spacing= TotalCust=0 Units=0 X0=0.1206 X1=0.1206 Xg=0.155081 XMatrix=[0.255208333] Yprim=[6.027693951300954, -6.110681170417655, -6.027693951300954, 6.110681309502683, -6.027693951300954, 6.110681309502683, 6.027693951300954, -6.110681170417655] Idx=40 IsSwitch=False SeasonRating=400.0 bus1=157a0f5443 bus2=e355a171aa Length=0.32182635319763003 ;
new Line.e18db1d40a Bus1=40.3 Bus2=41.3 C0=3.4 C1=3.4 CMatrix=[2.270366128] EmergAmps=600.0 Geometry= LineCode=11 NormAmps=400.0 NumCust=0 Parent=0 Phases=1 R0=0.058 R1=0.058 Rg=0.01805 Rho=100.0 RMatrix=[0.251742424] Spacing= TotalCust=0 Units=0 X0=0.1206 X1=0.1206 Xg=0.155081 XMatrix=[0.255208333] Yprim=[6.027693951300954, -6.110681170417655, -6.027693951300954, 6.110681309502683, -6.027693951300954, 6.110681309502683, 6.027693951300954, -6.110681170417655] Idx=41 IsSwitch=False SeasonRating=400.0 bus1=218975b854 bus2=befd7036fd Length=0.33227653168699167 ;
new Line.34dace4e2d Bus1=40.1.2.3 Bus2=42.1.2.3 C0=1.6 C1=3.4 CMatrix=[2.8517100719999995, -0.920293787, -0.350755566, -0.920293787, 3.004631862, -0.585011253, -0.350755566, -0.585011253, 2.71134756] EmergAmps=600.0 Geometry= LineCode=1 NormAmps=400.0 NumCust=0 Parent=0 Phases=3 R0=0.1784 R1=0.058 Rg=0.01805 Rho=100.0 RMatrix=[0.086666667, 0.029545455, 0.02907197, 0.029545455, 0.088371212, 0.029924242, 0.02907197, 0.029924242, 0.087405303] Spacing= TotalCust=0 Units=0 X0=0.4047 X1=0.1206 Xg=0.155081 XMatrix=[0.204166667, 0.095018939, 0.072897727, 0.095018939, 0.198522727, 0.080227273, 0.072897727, 0.080227273, 0.201723485] Yprim=[10.27675297788215, -21.309191360745356, -4.991835356016586, 7.314899463951227, -1.8013091105811212, 4.751463507448854, -10.27675297788215, 21.309191495129028, 4.991835356016586, -7.31489950731905, 1.8013091105811212, -4.7514635239778205, -4.991835356016586, 7.314899463951227, 11.491749734445916, -22.081858371958827, -3.0577079649089667, 5.799162450615596, 4.991835356016586, -7.31489950731905, -11.491749734445916, 22.081858513548767, 3.0577079649089667, -5.799162478183602, -1.8013091105811212, 4.751463507448854, -3.0577079649089667, 5.799162450615596, 9.23276687258708, -20.5652617386612, 1.8013091105811212, -4.7514635239778205, 3.0577079649089667, -5.799162478183602, -9.23276687258708, 20.565261866430443, -10.27675297788215, 21.309191495129028, 4.991835356016586, -7.31489950731905, 1.8013091105811212, -4.7514635239778205, 10.27675297788215, -21.309191360745356, -4.991835356016586, 7.314899463951227, -1.8013091105811212, 4.751463507448854, 4.991835356016586, -7.31489950731905, -11.491749734445916, 22.081858513548767, 3.0577079649089667, -5.799162478183602, -4.991835356016586, 7.314899463951227, 11.491749734445916, -22.081858371958827, -3.0577079649089667, 5.799162450615596, 1.8013091105811212, -4.7514635239778205, 3.0577079649089667, -5.799162478183602, -9.23276687258708, 20.565261866430443, -1.8013091105811212, 4.751463507448854, -3.0577079649089667, 5.799162450615596, 9.23276687258708, -20.5652617386612] Idx=42 IsSwitch=False SeasonRating=400.0 bus1=d9a1fcc6f2 bus2=f8ffce859d Length=0.2550859905448765 ;
new Line.5390f72ac7 Bus1=42.2 Bus2=43.2 C0=3.4 C1=3.4 CMatrix=[2.270366128] EmergAmps=600.0 Geometry= LineCode=10 NormAmps=400.0 NumCust=0 Parent=0 Phases=1 R0=0.058 R1=0.058 Rg=0.01805 Rho=100.0 RMatrix=[0.251742424] Spacing= TotalCust=0 Units=0 X0=0.1206 X1=0.1206 Xg=0.155081 XMatrix=[0.255208333] Yprim=[3.9180010683456197, -3.9719426371997772, -3.9180010683456197, 3.9719428511767436, -3.9180010683456197, 3.9719428511767436, 3.9180010683456197, -3.9719426371997772] Idx=43 IsSwitch=False SeasonRating=400.0 bus1=df06ae6474 bus2=befd7036fd Length=0.5234949960093517 ;
new Line.dd1ce7f9dd Bus1=42.1.2.3 Bus2=44.1.2.3 C0=1.6 C1=3.4 CMatrix=[2.8517100719999995, -0.920293787, -0.350755566, -0.920293787, 3.004631862, -0.585011253, -0.350755566, -0.585011253, 2.71134756] EmergAmps=600.0 Geometry= LineCode=1 NormAmps=400.0 NumCust=0 Parent=0 Phases=3 R0=0.1784 R1=0.058 Rg=0.01805 Rho=100.0 RMatrix=[0.086666667, 0.029545455, 0.02907197, 0.029545455, 0.088371212, 0.029924242, 0.02907197, 0.029924242, 0.087405303] Spacing= TotalCust=0 Units=0 X0=0.4047 X1=0.1206 Xg=0.155081 XMatrix=[0.204166667, 0.095018939, 0.072897727, 0.095018939, 0.198522727, 0.080227273, 0.072897727, 0.080227273, 0.201723485] Yprim=[12.845941222352682, -26.636489261404336, -6.239794195020733, 9.143624349454555, -2.2516363882263994, 5.9393293917491, -12.845941222352682, 26.636489368911274, 6.239794195020733, -9.143624384148813, 2.2516363882263994, -5.939329404972273, -6.239794195020733, 9.143624349454555, 14.364687168057396, -27.602323028664006, -3.822134956136208, 7.2489530756750975, 6.239794195020733, -9.143624384148813, -14.364687168057396, 27.60232314193596, 3.822134956136208, -7.248953097729502, -2.2516363882263994, 5.9393293917491, -3.822134956136208, 7.2489530756750975, 11.540958590733846, -25.706577230822656, 2.2516363882263994, -5.939329404972273, 3.822134956136208, -7.248953097729502, -11.540958590733846, 25.70657733303805, -12.845941222352682, 26.636489368911274, 6.239794195020733, -9.143624384148813, 2.2516363882263994, -5.939329404972273, 12.845941222352682, -26.636489261404336, -6.239794195020733, 9.143624349454555, -2.2516363882263994, 5.9393293917491, 6.239794195020733, -9.143624384148813, -14.364687168057396, 27.60232314193596, 3.822134956136208, -7.248953097729502, -6.239794195020733, 9.143624349454555, 14.364687168057396, -27.602323028664006, -3.822134956136208, 7.2489530756750975, 2.2516363882263994, -5.939329404972273, 3.822134956136208, -7.248953097729502, -11.540958590733846, 25.70657733303805, -2.2516363882263994, 5.9393293917491, -3.822134956136208, 7.2489530756750975, 11.540958590733846, -25.706577230822656] Idx=44 IsSwitch=False SeasonRating=400.0 bus1=f8ffce859d bus2=dbbe2e63cb Length=0.19994824571521377 ;
new Line.a88dc6949c Bus1=44.1 Bus2=45.1 C0=3.4 C1=3.4 CMatrix=[2.270366128] EmergAmps=600.0 Geometry= LineCode=9 NormAmps=400.0 NumCust=0 Parent=0 Phases=1 R0=0.058 R1=0.058 Rg=0.01805 Rho=100.0 RMatrix=[0.251742424] Spacing= TotalCust=0 Units=0 X0=0.1206 X1=0.1206 Xg=0.155081 XMatrix=[0.255208333] Yprim=[9.795002670864049, -9.929857042351072, -9.795002670864049, 9.929857127941858, -9.795002670864049, 9.929857127941858, 9.795002670864049, -9.929857042351072] Idx=45 IsSwitch=False SeasonRating=400.0 bus1=fef71ff973 bus2=20bc34dc61 Length=0.19485352623592317 ;
new Line.cdc1660b11 Bus1=44.1.2.3 Bus2=47.1.2.3 C0=1.6 C1=3.4 CMatrix=[2.8517100719999995, -0.920293787, -0.350755566, -0.920293787, 3.004631862, -0.585011253, -0.350755566, -0.585011253, 2.71134756] EmergAmps=600.0 Geometry= LineCode=1 NormAmps=400.0 NumCust=0 Parent=0 Phases=3 R0=0.1784 R1=0.058 Rg=0.01805 Rho=100.0 RMatrix=[0.086666667, 0.029545455, 0.02907197, 0.029545455, 0.088371212, 0.029924242, 0.02907197, 0.029924242, 0.087405303] Spacing= TotalCust=0 Units=0 X0=0.4047 X1=0.1206 Xg=0.155081 XMatrix=[0.204166667, 0.095018939, 0.072897727, 0.095018939, 0.198522727, 0.080227273, 0.072897727, 0.080227273, 0.201723485] Yprim=[10.27675297788215, -21.309191360745356, -4.991835356016586, 7.314899463951227, -1.8013091105811212, 4.751463507448854, -10.27675297788215, 21.309191495129028, 4.991835356016586, -7.31489950731905, 1.8013091105811212, -4.7514635239778205, -4.991835356016586, 7.314899463951227, 11.491749734445916, -22.081858371958827, -3.0577079649089667, 5.799162450615596, 4.991835356016586, -7.31489950731905, -11.491749734445916, 22.081858513548767, 3.0577079649089667, -5.799162478183602, -1.8013091105811212, 4.751463507448854, -3.0577079649089667, 5.799162450615596, 9.23276687258708, -20.5652617386612, 1.8013091105811212, -4.7514635239778205, 3.0577079649089667, -5.799162478183602, -9.23276687258708, 20.565261866430443, -10.27675297788215, 21.309191495129028, 4.991835356016586, -7.31489950731905, 1.8013091105811212, -4.7514635239778205, 10.27675297788215, -21.309191360745356, -4.991835356016586, 7.314899463951227, -1.8013091105811212, 4.751463507448854, 4.991835356016586, -7.31489950731905, -11.491749734445916, 22.081858513548767, 3.0577079649089667, -5.799162478183602, -4.991835356016586, 7.314899463951227, 11.491749734445916, -22.081858371958827, -3.0577079649089667, 5.799162450615596, 1.8013091105811212, -4.7514635239778205, 3.0577079649089667, -5.799162478183602, -9.23276687258708, 20.565261866430443, -1.8013091105811212, 4.751463507448854, -3.0577079649089667, 5.799162450615596, 9.23276687258708, -20.5652617386612] Idx=46 IsSwitch=False SeasonRating=400.0 bus1=dbbe2e63cb bus2=1f26f59c44 Length=0.24291934175441668 ;
new Line.d21c0acc64 Bus1=45.1 Bus2=46.1 C0=3.4 C1=3.4 CMatrix=[2.270366128] EmergAmps=600.0 Geometry= LineCode=9 NormAmps=400.0 NumCust=0 Parent=0 Phases=1 R0=0.058 R1=0.058 Rg=0.01805 Rho=100.0 RMatrix=[0.251742424] Spacing= TotalCust=0 Units=0 X0=0.1206 X1=0.1206 Xg=0.155081 XMatrix=[0.255208333] Yprim=[6.530001780576033, -6.619904623575059, -6.530001780576033, 6.619904751961239, -6.530001780576033, 6.619904751961239, 6.530001780576033, -6.619904623575059] Idx=47 IsSwitch=False SeasonRating=400.0 bus1=20bc34dc61 bus2=4caed44976 Length=0.2951973216986286 ;
new Line.ddc2470d87 Bus1=47.1.2.3 Bus2=48.1.2.3 C0=1.6 C1=3.4 CMatrix=[2.71134756, 0.585011253, -0.350755566, 0.585011253, 3.004631862, -0.920293787, -0.350755566, -0.920293787, 2.8517100719999995] EmergAmps=600.0 Geometry= LineCode=4 NormAmps=400.0 NumCust=0 Parent=0 Phases=3 R0=0.1784 R1=0.058 Rg=0.01805 Rho=100.0 RMatrix=[0.087405303, 0.029924242, 0.02907197, 0.029924242, 0.088371212, 0.029545455, 0.02907197, 0.029545455, 0.086666667] Spacing= TotalCust=0 Units=0 X0=0.4047 X1=0.1206 Xg=0.155081 XMatrix=[0.201723485, 0.080227273, 0.072897727, 0.080227273, 0.198522727, 0.095018939, 0.072897727, 0.095018939, 0.204166667] Yprim=[15.387944787645134, -34.2754363673892, -5.096179941514946, 9.665270813513475, -3.0021818509685354, 7.919105863378987, -15.387944787645134, 34.27543644405074, 5.096179941514946, -9.66527079697267, 3.0021818509685354, -7.919105873296367, -5.096179941514946, 9.665270813513475, 19.15291622407653, -36.803097437627315, -8.319725593360978, 12.191499152844392, 5.096179941514946, -9.66527079697267, -19.15291622407653, 36.80309752258128, 8.319725593360978, -12.191499178865085, -3.0021818509685354, 7.919105863378987, -8.319725593360978, 12.191499152844392, 17.127921629803584, -35.51531907791817, 3.0021818509685354, -7.919105873296367, 8.319725593360978, -12.191499178865085, -17.127921629803584, 35.51531915854837, -15.387944787645134, 34.27543644405074, 5.096179941514946, -9.66527079697267, 3.0021818509685354, -7.919105873296367, 15.387944787645134, -34.2754363673892, -5.096179941514946, 9.665270813513475, -3.0021818509685354, 7.919105863378987, 5.096179941514946, -9.66527079697267, -19.15291622407653, 36.80309752258128, 8.319725593360978, -12.191499178865085, -5.096179941514946, 9.665270813513475, 19.15291622407653, -36.803097437627315, -8.319725593360978, 12.191499152844392, 3.0021818509685354, -7.919105873296367, 8.319725593360978, -12.191499178865085, -17.127921629803584, 35.51531915854837, -3.0021818509685354, 7.919105863378987, -8.319725593360978, 12.191499152844392, 17.127921629803584, -35.51531907791817] Idx=48 IsSwitch=False SeasonRating=400.0 bus1=1f26f59c44 bus2=160b53c5b0 Length=0.1489326839555664 ;
new Line.6d5a0724cc Bus1=47.1.2.3 Bus2=49.1.2.3 C0=1.6 C1=3.4 CMatrix=[2.71134756, 0.585011253, -0.350755566, 0.585011253, 3.004631862, -0.920293787, -0.350755566, -0.920293787, 2.8517100719999995] EmergAmps=600.0 Geometry= LineCode=4 NormAmps=400.0 NumCust=0 Parent=0 Phases=3 R0=0.1784 R1=0.058 Rg=0.01805 Rho=100.0 RMatrix=[0.087405303, 0.029924242, 0.02907197, 0.029924242, 0.088371212, 0.029545455, 0.02907197, 0.029545455, 0.086666667] Spacing= TotalCust=0 Units=0 X0=0.4047 X1=0.1206 Xg=0.155081 XMatrix=[0.201723485, 0.080227273, 0.072897727, 0.080227273, 0.198522727, 0.095018939, 0.072897727, 0.095018939, 0.204166667] Yprim=[9.23276687258708, -20.5652617386612, -3.0577079649089667, 5.799162505751608, -1.8013091105811212, 4.751463507448854, -9.23276687258708, 20.565261866430443, 3.0577079649089667, -5.799162478183602, 1.8013091105811212, -4.7514635239778205, -3.0577079649089667, 5.799162505751608, 11.491749734445916, -22.081858371958827, -4.991835356016586, 7.314899463951227, 3.0577079649089667, -5.799162478183602, -11.491749734445916, 22.081858513548767, 4.991835356016586, -7.31489950731905, -1.8013091105811212, 4.751463507448854, -4.991835356016586, 7.314899463951227, 10.27675297788215, -21.309191360745356, 1.8013091105811212, -4.7514635239778205, 4.991835356016586, -7.31489950731905, -10.27675297788215, 21.309191495129028, -9.23276687258708, 20.565261866430443, 3.0577079649089667, -5.799162478183602, 1.8013091105811212, -4.7514635239778205, 9.23276687258708, -20.5652617386612, -3.0577079649089667, 5.799162505751608, -1.8013091105811212, 4.751463507448854, 3.0577079649089667, -5.799162478183602, -11.491749734445916, 22.081858513548767, 4.991835356016586, -7.31489950731905, -3.0577079649089667, 5.799162505751608, 11.491749734445916, -22.081858371958827, -4.991835356016586, 7.314899463951227, 1.8013091105811212, -4.7514635239778205, 4.991835356016586, -7.31489950731905, -10.27675297788215, 21.309191495129028, -1.8013091105811212, 4.751463507448854, -4.991835356016586, 7.314899463951227, 10.27675297788215, -21.309191360745356] Idx=49 IsSwitch=False SeasonRating=400.0 bus1=1f26f59c44 bus2=a217975f38 Length=0.2600137290445422 ;
...